100
/home/amir/work/BP4VA/dimers/C2_6/xyz/dimer_3.xyz
     C -20.154630   0.646918   5.969130
     C -19.138007   0.498444   6.895957
     H -20.783178   1.533916   5.957053
     N -20.449020  -0.274574   5.040351
     C -18.332816  -0.639220   6.845617
     H -18.985558   1.265138   7.647323
     C -19.734851  -1.408596   5.054954
     C -18.671544  -1.622061   5.918153
     C -17.200612  -0.835268   7.718983
     H -20.028251  -2.169202   4.334581
     H -18.099945  -2.538552   5.875083
     C -16.656454   0.146270   8.457306
     H -16.751646  -1.826039   7.720092
     C -15.529243   0.017061   9.354907
     H -17.058700   1.156883   8.351060
     C -15.485898  -0.967501  10.364526
     C -14.495392   0.968659   9.249380
     C -14.392847  -0.968659  11.289279
     C -16.456247  -1.991417  10.483466
     C -13.402341   0.967501  10.174133
     C -14.531563   1.961492   8.242657
     C -13.358996  -0.017061  11.183752
     C -14.356676  -1.961492  12.296002
     C -16.313955  -3.006744  11.393082
     H -17.280081  -2.009192   9.783939
     C -12.431992   1.991417  10.055193
     C -13.627726   2.984723   8.208768
     H -15.282655   1.915824   7.463892
     C -12.231786  -0.146270  12.081353
     C -15.260513  -2.984723  12.329891
     H -13.605584  -1.915824  13.074767
     H -17.005952  -3.839638  11.378992
     C -12.574284   3.006749   9.145577
     H -11.608158   2.009192  10.754720
     H -13.725901   3.763109   7.460237
     C -11.687627   0.835268  12.819676
     H -11.829540  -1.156883  12.187599
     H -15.162338  -3.763104  13.078422
     H -11.882288   3.839638   9.159667
     C -10.555424   0.639220  13.693042
     H -12.136593   1.826039  12.818567
     C  -9.750232  -0.498444  13.642702
     C -10.216695   1.622061  14.620506
     C  -8.733609  -0.646918  14.569529
     H  -9.902681  -1.265138  12.891336
     C  -9.153388   1.408596  15.483705
     H -10.788294   2.538552  14.663576
     H  -8.105068  -1.533916  14.581606
     N  -8.439219   0.274574  15.498308
     H  -8.859989   2.169202  16.204078
     C -12.995470  10.709178   5.969130
     C -11.978847  10.560704   6.895957
     H -13.624018  11.596176   5.957053
     N -13.289860   9.787686   5.040351
     C -11.173656   9.423040   6.845617
     H -11.826398  11.327398   7.647323
     C -12.575691   8.653664   5.054954
     C -11.512384   8.440199   5.918153
     C -10.041452   9.226992   7.718983
     H -12.869091   7.893058   4.334581
     H -10.940785   7.523708   5.875083
     C  -9.497294  10.208530   8.457306
     H  -9.592486   8.236221   7.720092
     C  -8.370083  10.079321   9.354907
     H  -9.899540  11.219143   8.351060
     C  -8.326738   9.094759  10.364526
     C  -7.336232  11.030919   9.249380
     C  -7.233687   9.093601  11.289279
     C  -9.297087   8.070843  10.483466
     C  -6.243181  11.029761  10.174133
     C  -7.372403  12.023752   8.242657
     C  -6.199836  10.045199  11.183752
     C  -7.197516   8.100768  12.296002
     C  -9.154795   7.055516  11.393082
     H -10.120921   8.053068   9.783939
     C  -5.272832  12.053677  10.055193
     C  -6.468566  13.046983   8.208768
     H  -8.123495  11.978084   7.463892
     C  -5.072626   9.915990  12.081353
     C  -8.101353   7.077537  12.329891
     H  -6.446424   8.146436  13.074767
     H  -9.846792   6.222622  11.378992
     C  -5.415124  13.069009   9.145577
     H  -4.448998  12.071452  10.754720
     H  -6.566741  13.825369   7.460237
     C  -4.528467  10.897528  12.819676
     H  -4.670380   8.905377  12.187599
     H  -8.003178   6.299156  13.078422
     H  -4.723128  13.901898   9.159667
     C  -3.396264  10.701480  13.693042
     H  -4.977433  11.888299  12.818567
     C  -2.591072   9.563816  13.642702
     C  -3.057535  11.684321  14.620506
     C  -1.574449   9.415342  14.569529
     H  -2.743521   8.797122  12.891336
     C  -1.994228  11.470856  15.483705
     H  -3.629134  12.600812  14.663576
     H  -0.945908   8.528344  14.581606
     N  -1.280059  10.336834  15.498308
     H  -1.700829  12.231462  16.204078
