100
/home/amir/work/BP4VA/dimers/C2_6/xyz/dimer_18.xyz
     C -12.743871  -4.384212 -14.569529
     C -11.727248  -4.532686 -13.642702
     H -13.372419  -3.497214 -14.581606
     N -13.038261  -5.305704 -15.498308
     C -10.922057  -5.670350 -13.693042
     H -11.574799  -3.765992 -12.891336
     C -12.324092  -6.439726 -15.483705
     C -11.260785  -6.653191 -14.620506
     C  -9.789853  -5.866398 -12.819676
     H -12.617492  -7.200332 -16.204078
     H -10.689186  -7.569682 -14.663576
     C  -9.245695  -4.884860 -12.081353
     H  -9.340887  -6.857169 -12.818567
     C  -8.118484  -5.014069 -11.183752
     H  -9.647941  -3.874247 -12.187599
     C  -8.075139  -5.998631 -10.174133
     C  -7.084633  -4.062471 -11.289279
     C  -6.982088  -5.999789  -9.249380
     C  -9.045488  -7.022547 -10.055193
     C  -5.991582  -4.063629 -10.364526
     C  -7.120804  -3.069638 -12.296002
     C  -5.948237  -5.048191  -9.354907
     C  -6.945917  -6.992622  -8.242657
     C  -8.903196  -8.037874  -9.145577
     H  -9.869322  -7.040322 -10.754720
     C  -5.021233  -3.039713 -10.483466
     C  -6.216967  -2.046407 -12.329891
     H  -7.871896  -3.115306 -13.074767
     C  -4.821027  -5.177400  -8.457306
     C  -7.849754  -8.015853  -8.208768
     H  -6.194825  -6.946954  -7.463892
     H  -9.595193  -8.870768  -9.159667
     C  -5.163525  -2.024381 -11.393082
     H  -4.197399  -3.021938  -9.783939
     H  -6.315142  -1.268021 -13.078422
     C  -4.276868  -4.195862  -7.718983
     H  -4.418781  -6.188013  -8.351060
     H  -7.751579  -8.794234  -7.460237
     H  -4.471529  -1.191492 -11.378992
     C  -3.144665  -4.391910  -6.845617
     H  -4.725834  -3.205091  -7.720092
     C  -2.339473  -5.529574  -6.895957
     C  -2.805936  -3.409069  -5.918153
     C  -1.322850  -5.678048  -5.969130
     H  -2.491922  -6.296268  -7.647323
     C  -1.742629  -3.622534  -5.054954
     H  -3.377535  -2.492578  -5.875083
     H  -0.694309  -6.565046  -5.957053
     N  -1.028460  -4.756556  -5.040351
     H  -1.449230  -2.861928  -4.334581
     C  12.869671  -6.899777   4.300200
     C  11.853048  -7.048251   3.373372
     H  13.498212  -6.012779   4.312276
     N  13.164061  -7.821269   5.228978
     C  11.047856  -8.185915   3.423712
     H  11.700598  -6.281557   2.622006
     C  12.449892  -8.955291   5.214375
     C  11.386585  -9.168756   4.351177
     C   9.915652  -8.381963   2.550347
     H  12.743291  -9.715897   5.934748
     H  10.814985 -10.085247   4.394246
     C   9.371494  -7.400425   1.812023
     H   9.466686  -9.372734   2.549238
     C   8.244283  -7.529634   0.914422
     H   9.773740  -6.389812   1.918270
     C   8.200939  -8.514196  -0.095197
     C   7.210432  -6.578036   1.019950
     C   7.107888  -8.515354  -1.019950
     C   9.171288  -9.538112  -0.214136
     C   6.117381  -6.579194   0.095197
     C   7.246603  -5.585203   2.026673
     C   6.074037  -7.563756  -0.914422
     C   7.071717  -9.508187  -2.026673
     C   9.028996 -10.553444  -1.123752
     H   9.995121  -9.555887   0.485390
     C   5.147032  -5.555278   0.214136
     C   6.342766  -4.561972   2.060562
     H   7.997695  -5.630871   2.805437
     C   4.946826  -7.692965  -1.812023
     C   7.975554 -10.531418  -2.060562
     H   6.320625  -9.462519  -2.805437
     H   9.720992 -11.386333  -1.109663
     C   5.289324  -4.539951   1.123752
     H   4.323199  -5.537503  -0.485390
     H   6.440941  -3.783591   2.809093
     C   4.402668  -6.711427  -2.550347
     H   4.544580  -8.703578  -1.918270
     H   7.877379 -11.309799  -2.809093
     H   4.597328  -3.707057   1.109663
     C   3.270464  -6.907475  -3.423712
     H   4.851634  -5.720656  -2.549238
     C   2.465272  -8.045139  -3.373372
     C   2.931735  -5.924634  -4.351177
     C   1.448649  -8.193613  -4.300200
     H   2.617722  -8.811833  -2.622006
     C   1.868428  -6.138099  -5.214375
     H   3.503335  -5.008143  -4.394246
     H   0.820101  -9.080611  -4.312276
     N   1.154259  -7.272121  -5.228978
     H   1.575029  -5.377493  -5.934748
