100
/home/amir/work/BP4VA/dimers/C2_6/xyz/dimer_4.xyz
     C -12.995470  -9.415342   5.969130
     C -11.978847  -9.563816   6.895957
     H -13.624018  -8.528344   5.957053
     N -13.289860 -10.336834   5.040351
     C -11.173656 -10.701480   6.845617
     H -11.826398  -8.797122   7.647323
     C -12.575691 -11.470856   5.054954
     C -11.512384 -11.684321   5.918153
     C -10.041452 -10.897528   7.718983
     H -12.869091 -12.231462   4.334581
     H -10.940785 -12.600812   5.875083
     C  -9.497294  -9.915990   8.457306
     H  -9.592486 -11.888299   7.720092
     C  -8.370083 -10.045199   9.354907
     H  -9.899540  -8.905377   8.351060
     C  -8.326738 -11.029761  10.364526
     C  -7.336232  -9.093601   9.249380
     C  -7.233687 -11.030919  11.289279
     C  -9.297087 -12.053677  10.483466
     C  -6.243181  -9.094759  10.174133
     C  -7.372403  -8.100768   8.242657
     C  -6.199836 -10.079321  11.183752
     C  -7.197516 -12.023752  12.296002
     C  -9.154795 -13.069004  11.393082
     H -10.120921 -12.071452   9.783939
     C  -5.272832  -8.070843  10.055193
     C  -6.468566  -7.077537   8.208768
     H  -8.123495  -8.146436   7.463892
     C  -5.072626 -10.208530  12.081353
     C  -8.101353 -13.046983  12.329891
     H  -6.446424 -11.978084  13.074767
     H  -9.846792 -13.901898  11.378992
     C  -5.415124  -7.055511   9.145577
     H  -4.448998  -8.053068  10.754720
     H  -6.566741  -6.299151   7.460237
     C  -4.528467  -9.226992  12.819676
     H  -4.670380 -11.219143  12.187599
     H  -8.003178 -13.825364  13.078422
     H  -4.723128  -6.222622   9.159667
     C  -3.396264  -9.423040  13.693042
     H  -4.977433  -8.236221  12.818567
     C  -2.591072 -10.560704  13.642702
     C  -3.057535  -8.440199  14.620506
     C  -1.574449 -10.709178  14.569529
     H  -2.743521 -11.327398  12.891336
     C  -1.994228  -8.653664  15.483705
     H  -3.629134  -7.523708  14.663576
     H  -0.945908 -11.596176  14.581606
     N  -1.280059  -9.787686  15.498308
     H  -1.700829  -7.893058  16.204078
     C -12.995470  -4.384212   5.969130
     C -11.978847  -4.532686   6.895957
     H -13.624018  -3.497214   5.957053
     N -13.289860  -5.305704   5.040351
     C -11.173656  -5.670350   6.845617
     H -11.826398  -3.765992   7.647323
     C -12.575691  -6.439726   5.054954
     C -11.512384  -6.653191   5.918153
     C -10.041452  -5.866398   7.718983
     H -12.869091  -7.200332   4.334581
     H -10.940785  -7.569682   5.875083
     C  -9.497294  -4.884860   8.457306
     H  -9.592486  -6.857169   7.720092
     C  -8.370083  -5.014069   9.354907
     H  -9.899540  -3.874247   8.351060
     C  -8.326738  -5.998631  10.364526
     C  -7.336232  -4.062471   9.249380
     C  -7.233687  -5.999789  11.289279
     C  -9.297087  -7.022547  10.483466
     C  -6.243181  -4.063629  10.174133
     C  -7.372403  -3.069638   8.242657
     C  -6.199836  -5.048191  11.183752
     C  -7.197516  -6.992622  12.296002
     C  -9.154795  -8.037874  11.393082
     H -10.120921  -7.040322   9.783939
     C  -5.272832  -3.039713  10.055193
     C  -6.468566  -2.046407   8.208768
     H  -8.123495  -3.115306   7.463892
     C  -5.072626  -5.177400  12.081353
     C  -8.101353  -8.015853  12.329891
     H  -6.446424  -6.946954  13.074767
     H  -9.846792  -8.870768  11.378992
     C  -5.415124  -2.024381   9.145577
     H  -4.448998  -3.021938  10.754720
     H  -6.566741  -1.268021   7.460237
     C  -4.528467  -4.195862  12.819676
     H  -4.670380  -6.188013  12.187599
     H  -8.003178  -8.794234  13.078422
     H  -4.723128  -1.191492   9.159667
     C  -3.396264  -4.391910  13.693042
     H  -4.977433  -3.205091  12.818567
     C  -2.591072  -5.529574  13.642702
     C  -3.057535  -3.409069  14.620506
     C  -1.574449  -5.678048  14.569529
     H  -2.743521  -6.296268  12.891336
     C  -1.994228  -3.622534  15.483705
     H  -3.629134  -2.492578  14.663576
     H  -0.945908  -6.565046  14.581606
     N  -1.280059  -4.756556  15.498308
     H  -1.700829  -2.861928  16.204078
