100
/home/amir/work/BP4VA/dimers/C1_0/xyz/dimer_2.xyz
     C -15.408265   6.579903   1.654555
     C -15.084131   7.800002   1.114943
     C -14.549647   5.914031   2.581797
     H -16.339658   6.105466   1.361943
     C -13.862730   8.429508   1.459406
     H -15.764812   8.275372   0.410426
     C -13.327580   6.581086   2.970825
     C -14.902842   4.680647   3.188548
     C -13.023564   7.839192   2.370683
     H -13.581569   9.372694   0.993508
     C -12.489291   6.032730   3.974459
     C -14.064540   4.132282   4.192205
     C -16.115274   3.951018   2.809325
     H -12.100998   8.345337   2.648568
     C -12.842424   4.799362   4.581089
     C -11.276997   6.762433   4.354161
     C -14.368587   2.874382   4.792883
     C -16.457385   3.630701   1.544164
     H -16.754801   3.608174   3.628061
     C -11.983685   4.133927   5.508451
     C -10.935727   7.083763   5.619291
     H -10.636653   7.104407   3.535681
     C -13.529393   2.284602   5.704456
     H -15.291124   2.367972   4.515390
     C -17.666732   2.928868   1.137404
     H -15.785172   3.912123   0.729966
     C -12.307872   2.914113   6.048560
     H -11.052284   4.608523   5.800800
     C  -9.726023   7.784914   6.026353
     H -11.608670   6.803447   6.433288
     H -13.810656   1.341749   6.170977
     C -18.724587   2.631563   2.013154
     C -17.840682   2.569035  -0.206977
     H -11.627300   2.439034   6.753404
     C  -8.667367   8.080593   5.151083
     C  -9.552396   8.145377   7.370567
     C -19.890550   2.076163   1.503243
     H -18.664019   2.864899   3.073953
     C -19.035953   1.985073  -0.614231
     H -17.060113   2.768562  -0.938854
     C  -7.501224   8.635446   5.661130
     H  -8.727568   7.846672   4.090412
     C  -8.356488   8.727744   7.778245
     H -10.333504   7.947043   8.102180
     H -20.739724   1.906556   2.168294
     N -20.072876   1.753359   0.208061
     H -19.170548   1.713577  -1.662189
     H  -6.651729   8.804479   4.996351
     N  -7.319030   8.958333   6.956328
     H  -8.221927   8.999167   8.826235
     C  -8.768526   6.669695   1.808648
     C  -8.444392   7.889794   1.269036
     C  -7.909908   6.003823   2.735890
     H  -9.699919   6.195258   1.516036
     C  -7.222991   8.519300   1.613499
     H  -9.125073   8.365164   0.564519
     C  -6.687841   6.670878   3.124918
     C  -8.263103   4.770439   3.342641
     C  -6.383825   7.928984   2.524776
     H  -6.941830   9.462486   1.147601
     C  -5.849552   6.122522   4.128552
     C  -7.424801   4.222074   4.346298
     C  -9.475535   4.040810   2.963418
     H  -5.461259   8.435129   2.802661
     C  -6.202685   4.889154   4.735182
     C  -4.637258   6.852225   4.508254
     C  -7.728848   2.964174   4.946976
     C  -9.817646   3.720493   1.698257
     H -10.115062   3.697966   3.782154
     C  -5.343946   4.223719   5.662544
     C  -4.295988   7.173555   5.773384
     H  -3.996914   7.194199   3.689774
     C  -6.889654   2.374394   5.858549
     H  -8.651385   2.457764   4.669483
     C -11.026993   3.018660   1.291497
     H  -9.145433   4.001915   0.884059
     C  -5.668133   3.003905   6.202653
     H  -4.412545   4.698315   5.954893
     C  -3.086284   7.874706   6.180446
     H  -4.968931   6.893239   6.587381
     H  -7.170917   1.431541   6.325070
     C -12.084848   2.721355   2.167247
     C -11.200943   2.658827  -0.052884
     H  -4.987561   2.528826   6.907497
     C  -2.027628   8.170385   5.305176
     C  -2.912657   8.235169   7.524660
     C -13.250811   2.165955   1.657336
     H -12.024280   2.954691   3.228046
     C -12.396214   2.074865  -0.460138
     H -10.420374   2.858354  -0.784761
     C  -0.861485   8.725238   5.815223
     H  -2.087829   7.936464   4.244505
     C  -1.716749   8.817536   7.932338
     H  -3.693765   8.036835   8.256273
     H -14.099985   1.996348   2.322387
     N -13.433137   1.843151   0.362154
     H -12.530809   1.803369  -1.508096
     H  -0.011990   8.894271   5.150444
     N  -0.679291   9.048125   7.110421
     H  -1.582188   9.088959   8.980328
