100
/home/amir/work/BP4VA/dimers/C1_6/xyz/dimer_0.xyz
     C   4.715953   6.855296   1.932619
     C   5.003316   8.068800   1.377845
     C   5.640302   6.173829   2.766705
     H   3.732584   6.428635   1.802386
     C   6.297094   8.614185   1.523127
     H   4.253276   8.579153   0.787221
     C   6.898208   6.803047   3.031220
     C   5.301548   4.962942   3.411561
     C   7.213561   7.983000   2.310541
     H   6.598249   9.515513   1.003346
     C   7.763608   6.297700   4.030779
     C   6.166948   4.457595   4.411119
     C   4.168851   4.161993   3.027611
     H   8.211427   8.394383   2.372045
     C   7.424854   5.086813   4.675635
     C   8.896305   7.098649   4.414729
     C   5.851590   3.277639   5.131791
     C   3.663691   3.999248   1.788796
     H   3.730456   3.541174   3.801651
     C   8.349203   4.405346   5.509720
     C   9.401465   7.261394   5.653544
     H   9.334700   7.719468   3.640688
     C   6.768062   2.646457   5.919213
     H   4.853729   2.866259   5.070295
     C   2.505640   3.190215   1.503688
     H   4.093496   4.518206   0.935398
     C   8.061840   3.191842   6.064495
     H   9.332572   4.832007   5.639954
     C  10.559516   8.070427   5.938652
     H   8.971660   6.742436   6.506942
     H   6.466907   1.745129   6.438993
     C   1.657600   2.681762   2.498148
     C   2.106628   2.997737   0.181593
     H   8.811880   2.681489   6.655119
     C  11.407556   8.578880   4.944192
     C  10.958528   8.262905   7.260747
     C   0.410619   2.214610   2.132148
     H   1.923429   2.720553   3.548932
     C   0.870087   2.434685  -0.082893
     H   2.696808   3.388837  -0.637302
     C  12.654537   9.046032   5.310191
     H  11.141727   8.540089   3.893408
     C  12.195069   8.825957   7.525233
     H  10.368348   7.871805   8.079642
     H  -0.311025   1.964085   2.908556
     N  -0.013805   2.102730   0.861339
     H   0.551197   2.346613  -1.113649
     H  13.376181   9.296557   4.533784
     N  13.078961   9.157912   6.581001
     H  12.513959   8.914029   8.555989
     C   8.740258   9.507323   9.665462
     C   9.027621  10.720827   9.110688
     C   9.664607   8.825856  10.499548
     H   7.756889   9.080662   9.535229
     C  10.321399  11.266212   9.255970
     H   8.277581  11.231180   8.520064
     C  10.922513   9.455074  10.764063
     C   9.325853   7.614969  11.144404
     C  11.237866  10.635027  10.043384
     H  10.622554  12.167540   8.736189
     C  11.787913   8.949727  11.763622
     C  10.191253   7.109622  12.143962
     C   8.193156   6.814020  10.760454
     H  12.235732  11.046410  10.104888
     C  11.449159   7.738840  12.408478
     C  12.920610   9.750676  12.147572
     C   9.875895   5.929666  12.864634
     C   7.687996   6.651275   9.521639
     H   7.754761   6.193201  11.534494
     C  12.373508   7.057373  13.242563
     C  13.425770   9.913421  13.386387
     H  13.359005  10.371495  11.373531
     C  10.792367   5.298484  13.652056
     H   8.878034   5.518286  12.803138
     C   6.529945   5.842242   9.236531
     H   8.117801   7.170233   8.668241
     C  12.086145   5.843869  13.797338
     H  13.356877   7.484034  13.372797
     C  14.583821  10.722454  13.671495
     H  12.995965   9.394463  14.239785
     H  10.491212   4.397156  14.171836
     C   5.681905   5.333789  10.230991
     C   6.130933   5.649764   7.914436
     H  12.836185   5.333516  14.387962
     C  15.431861  11.230907  12.677035
     C  14.982833  10.914932  14.993590
     C   4.434924   4.866637   9.864991
     H   5.947734   5.372580  11.281775
     C   4.894392   5.086712   7.649950
     H   6.721113   6.040864   7.095541
     C  16.678842  11.698059  13.043034
     H  15.166032  11.192116  11.626251
     C  16.219374  11.477984  15.258076
     H  14.392653  10.523832  15.812485
     H   3.713280   4.616112  10.641399
     N   4.010500   4.754757   8.594182
     H   4.575502   4.998640   6.619194
     H  17.400486  11.948584  12.266627
     N  17.103266  11.809939  14.313844
     H  16.538264  11.566056  16.288832
