100
/home/amir/work/BP4VA/dimers/C1_6/xyz/dimer_5.xyz
     C   4.715953   6.855296   1.932619
     C   5.003316   8.068800   1.377845
     C   5.640302   6.173829   2.766705
     H   3.732584   6.428635   1.802386
     C   6.297094   8.614185   1.523127
     H   4.253276   8.579153   0.787221
     C   6.898208   6.803047   3.031220
     C   5.301548   4.962942   3.411561
     C   7.213561   7.983000   2.310541
     H   6.598249   9.515513   1.003346
     C   7.763608   6.297700   4.030779
     C   6.166948   4.457595   4.411119
     C   4.168851   4.161993   3.027611
     H   8.211427   8.394383   2.372045
     C   7.424854   5.086813   4.675635
     C   8.896305   7.098649   4.414729
     C   5.851590   3.277639   5.131791
     C   3.663691   3.999248   1.788796
     H   3.730456   3.541174   3.801651
     C   8.349203   4.405346   5.509720
     C   9.401465   7.261394   5.653544
     H   9.334700   7.719468   3.640688
     C   6.768062   2.646457   5.919213
     H   4.853729   2.866259   5.070295
     C   2.505640   3.190215   1.503688
     H   4.093496   4.518206   0.935398
     C   8.061840   3.191842   6.064495
     H   9.332572   4.832007   5.639954
     C  10.559516   8.070427   5.938652
     H   8.971660   6.742436   6.506942
     H   6.466907   1.745129   6.438993
     C   1.657600   2.681762   2.498148
     C   2.106628   2.997737   0.181593
     H   8.811880   2.681489   6.655119
     C  11.407556   8.578880   4.944192
     C  10.958528   8.262905   7.260747
     C   0.410619   2.214610   2.132148
     H   1.923429   2.720553   3.548932
     C   0.870087   2.434685  -0.082893
     H   2.696808   3.388837  -0.637302
     C  12.654537   9.046032   5.310191
     H  11.141727   8.540089   3.893408
     C  12.195069   8.825957   7.525233
     H  10.368348   7.871805   8.079642
     H  -0.311025   1.964085   2.908556
     N  -0.013805   2.102730   0.861339
     H   0.551197   2.346613  -1.113649
     H  13.376181   9.296557   4.533784
     N  13.078961   9.157912   6.581001
     H  12.513959   8.914029   8.555989
     C  19.215829  15.331590   2.893149
     C  19.503192  16.545094   2.338375
     C  20.140178  14.650123   3.727235
     H  18.232460  14.904929   2.762916
     C  20.796970  17.090479   2.483657
     H  18.753152  17.055447   1.747751
     C  21.398084  15.279341   3.991750
     C  19.801424  13.439236   4.372091
     C  21.713437  16.459294   3.271071
     H  21.098125  17.991807   1.963876
     C  22.263484  14.773994   4.991309
     C  20.666824  12.933889   5.371649
     C  18.668727  12.638287   3.988141
     H  22.711303  16.870677   3.332575
     C  21.924730  13.563107   5.636165
     C  23.396181  15.574943   5.375259
     C  20.351466  11.753933   6.092321
     C  18.163567  12.475542   2.749326
     H  18.230332  12.017468   4.762181
     C  22.849079  12.881640   6.470250
     C  23.901341  15.737688   6.614074
     H  23.834576  16.195762   4.601218
     C  21.267938  11.122751   6.879743
     H  19.353605  11.342553   6.030825
     C  17.005516  11.666509   2.464218
     H  18.593372  12.994500   1.895928
     C  22.561716  11.668136   7.025025
     H  23.832448  13.308301   6.600484
     C  25.059392  16.546721   6.899182
     H  23.471536  15.218730   7.467472
     H  20.966783  10.221423   7.399523
     C  16.157476  11.158056   3.458678
     C  16.606504  11.474031   1.142123
     H  23.311756  11.157783   7.615649
     C  25.907432  17.055174   5.904722
     C  25.458404  16.739199   8.221277
     C  14.910495  10.690904   3.092678
     H  16.423305  11.196847   4.509462
     C  15.369963  10.910979   0.877637
     H  17.196684  11.865131   0.323228
     C  27.154413  17.522326   6.270721
     H  25.641603  17.016383   4.853938
     C  26.694945  17.302251   8.485763
     H  24.868224  16.348099   9.040172
     H  14.188851  10.440379   3.869086
     N  14.486071  10.579024   1.821869
     H  15.051073  10.822907  -0.153119
     H  27.876057  17.772851   5.494314
     N  27.578837  17.634206   7.541531
     H  27.013835  17.390323   9.516519
