100
/home/amir/work/BP4VA/dimers/C2_0/xyz/dimer_0.xyz
     C -13.992548 -10.498251   6.186683
     C -12.987070 -10.552961   7.145433
     H -14.678711  -9.648876   6.145771
     N -14.202086 -11.466630   5.271529
     C -12.106631 -11.648457   7.165449
     H -12.913102  -9.753612   7.882070
     C -13.391900 -12.538297   5.324340
     C -12.343448 -12.668202   6.230345
     C -11.000507 -11.769792   8.106427
     H -13.590346 -13.329882   4.599009
     H -11.710031 -13.553590   6.204412
     C -10.484340 -10.748953   8.823664
     H -10.535388 -12.755280   8.179387
     C  -9.390344 -10.810942   9.791212
     H -10.890178  -9.748024   8.645322
     C  -9.364650 -11.761597  10.845995
     C  -8.367881  -9.829922   9.703559
     C  -8.308582 -11.705294  11.829535
     C -10.363102 -12.768702  11.000164
     C  -7.311812  -9.773619  10.687098
     C  -8.336762  -8.903187   8.620093
     C  -7.286119 -10.724274  11.741882
     C  -8.339701 -12.632029  12.913001
     C -10.306681 -13.692723  12.014387
     H -11.182006 -12.812531  10.288272
     C  -6.313360  -8.766514  10.532930
     C  -7.388102  -7.915518   8.539787
     H  -9.056989  -8.993894   7.809110
     C  -6.192124 -10.786263  12.709452
     C  -9.288361 -13.619698  12.993307
     H  -7.619473 -12.541322  13.723983
     H -11.056729 -14.478564  12.076459
     C  -6.369782  -7.842493   9.518707
     H  -5.494456  -8.722685  11.244822
     H  -7.401184  -7.212486   7.708172
     C  -5.675956  -9.765424  13.426667
     H  -5.786284 -11.787192  12.887771
     H  -9.275279 -14.322730  13.824922
     H  -5.619734  -7.056652   9.456635
     C  -4.569832  -9.886759  14.367644
     H  -6.141074  -8.779936  13.353707
     C  -3.689393 -10.982255  14.387661
     C  -4.333015  -8.867014  15.302749
     C  -2.683915 -11.036965  15.346411
     H  -3.763360 -11.781604  13.651023
     C  -3.284563  -8.996919  16.208753
     H  -4.966431  -7.981626  15.328682
     H  -1.997751 -11.886340  15.387323
     N  -2.474384 -10.068586  16.261565
     H  -3.086116  -8.205334  16.934085
     C -13.992548  -5.114448   6.186683
     C -12.987070  -5.169158   7.145433
     H -14.678711  -4.265073   6.145771
     N -14.202086  -6.082827   5.271529
     C -12.106631  -6.264654   7.165449
     H -12.913102  -4.369809   7.882070
     C -13.391900  -7.154494   5.324340
     C -12.343448  -7.284399   6.230345
     C -11.000507  -6.385989   8.106427
     H -13.590346  -7.946079   4.599009
     H -11.710031  -8.169787   6.204412
     C -10.484340  -5.365150   8.823664
     H -10.535388  -7.371477   8.179387
     C  -9.390344  -5.427139   9.791212
     H -10.890178  -4.364221   8.645322
     C  -9.364650  -6.377794  10.845995
     C  -8.367881  -4.446119   9.703559
     C  -8.308582  -6.321491  11.829535
     C -10.363102  -7.384899  11.000164
     C  -7.311812  -4.389816  10.687098
     C  -8.336762  -3.519384   8.620093
     C  -7.286119  -5.340471  11.741882
     C  -8.339701  -7.248226  12.913001
     C -10.306681  -8.308920  12.014387
     H -11.182006  -7.428728  10.288272
     C  -6.313360  -3.382711  10.532930
     C  -7.388102  -2.531715   8.539787
     H  -9.056989  -3.610091   7.809110
     C  -6.192124  -5.402460  12.709452
     C  -9.288361  -8.235895  12.993307
     H  -7.619473  -7.157519  13.723983
     H -11.056729  -9.094761  12.076459
     C  -6.369782  -2.458690   9.518707
     H  -5.494456  -3.338882  11.244822
     H  -7.401184  -1.828683   7.708172
     C  -5.675956  -4.381621  13.426667
     H  -5.786284  -6.403389  12.887771
     H  -9.275279  -8.938927  13.824922
     H  -5.619734  -1.672849   9.456635
     C  -4.569832  -4.502956  14.367644
     H  -6.141074  -3.396133  13.353707
     C  -3.689393  -5.598452  14.387661
     C  -4.333015  -3.483211  15.302749
     C  -2.683915  -5.653162  15.346411
     H  -3.763360  -6.397801  13.651023
     C  -3.284563  -3.613116  16.208753
     H  -4.966431  -2.597823  15.328682
     H  -1.997751  -6.502537  15.387323
     N  -2.474384  -4.684783  16.261565
     H  -3.086116  -2.821531  16.934085
