100
/home/amir/work/BP4VA/dimers/C1_0/xyz/dimer_3.xyz
     C -15.408265   6.579903   1.654555
     C -15.084131   7.800002   1.114943
     C -14.549647   5.914031   2.581797
     H -16.339658   6.105466   1.361943
     C -13.862730   8.429508   1.459406
     H -15.764812   8.275372   0.410426
     C -13.327580   6.581086   2.970825
     C -14.902842   4.680647   3.188548
     C -13.023564   7.839192   2.370683
     H -13.581569   9.372694   0.993508
     C -12.489291   6.032730   3.974459
     C -14.064540   4.132282   4.192205
     C -16.115274   3.951018   2.809325
     H -12.100998   8.345337   2.648568
     C -12.842424   4.799362   4.581089
     C -11.276997   6.762433   4.354161
     C -14.368587   2.874382   4.792883
     C -16.457385   3.630701   1.544164
     H -16.754801   3.608174   3.628061
     C -11.983685   4.133927   5.508451
     C -10.935727   7.083763   5.619291
     H -10.636653   7.104407   3.535681
     C -13.529393   2.284602   5.704456
     H -15.291124   2.367972   4.515390
     C -17.666732   2.928868   1.137404
     H -15.785172   3.912123   0.729966
     C -12.307872   2.914113   6.048560
     H -11.052284   4.608523   5.800800
     C  -9.726023   7.784914   6.026353
     H -11.608670   6.803447   6.433288
     H -13.810656   1.341749   6.170977
     C -18.724587   2.631563   2.013154
     C -17.840682   2.569035  -0.206977
     H -11.627300   2.439034   6.753404
     C  -8.667367   8.080593   5.151083
     C  -9.552396   8.145377   7.370567
     C -19.890550   2.076163   1.503243
     H -18.664019   2.864899   3.073953
     C -19.035953   1.985073  -0.614231
     H -17.060113   2.768562  -0.938854
     C  -7.501224   8.635446   5.661130
     H  -8.727568   7.846672   4.090412
     C  -8.356488   8.727744   7.778245
     H -10.333504   7.947043   8.102180
     H -20.739724   1.906556   2.168294
     N -20.072876   1.753359   0.208061
     H -19.170548   1.713577  -1.662189
     H  -6.651729   8.804479   4.996351
     N  -7.319030   8.958333   6.956328
     H  -8.221927   8.999167   8.826235
     C  -5.441044   9.705419   9.863436
     C  -5.116910  10.925518   9.323824
     C  -4.582426   9.039547  10.790678
     H  -6.372437   9.230982   9.570824
     C  -3.895509  11.555024   9.668287
     H  -5.797591  11.400888   8.619307
     C  -3.360359   9.706602  11.179706
     C  -4.935621   7.806163  11.397429
     C  -3.056343  10.964708  10.579564
     H  -3.614348  12.498210   9.202389
     C  -2.522070   9.158246  12.183340
     C  -4.097319   7.257798  12.401086
     C  -6.148053   7.076534  11.018206
     H  -2.133777  11.470853  10.857449
     C  -2.875203   7.924878  12.789970
     C  -1.309776   9.887949  12.563042
     C  -4.401366   5.999898  13.001764
     C  -6.490164   6.756217   9.753045
     H  -6.787580   6.733690  11.836942
     C  -2.016464   7.259443  13.717332
     C  -0.968506  10.209279  13.828172
     H  -0.669432  10.229923  11.744562
     C  -3.562172   5.410118  13.913337
     H  -5.323903   5.493488  12.724271
     C  -7.699511   6.054384   9.346285
     H  -5.817951   7.037639   8.938847
     C  -2.340651   6.039629  14.257441
     H  -1.085063   7.734039  14.009681
     C   0.241198  10.910430  14.235234
     H  -1.641449   9.928963  14.642169
     H  -3.843435   4.467265  14.379858
     C  -8.757366   5.757079  10.222035
     C  -7.873461   5.694551   8.001904
     H  -1.660079   5.564550  14.962285
     C   1.299854  11.206109  13.359964
     C   0.414825  11.270893  15.579448
     C  -9.923329   5.201679   9.712124
     H  -8.696798   5.990415  11.282834
     C  -9.068732   5.110589   7.594650
     H  -7.092892   5.894078   7.270027
     C   2.465997  11.760962  13.870011
     H   1.239653  10.972188  12.299293
     C   1.610733  11.853260  15.987126
     H  -0.366283  11.072559  16.311061
     H -10.772503   5.032072  10.377175
     N -10.105655   4.878875   8.416942
     H  -9.203327   4.839093   6.546692
     H   3.315492  11.929995  13.205232
     N   2.648191  12.083849  15.165209
     H   1.745294  12.124683  17.035116
