100
/home/amir/work/BP4VA/dimers/C1_0/xyz/dimer_6.xyz
     C -12.080782   9.615626   9.709342
     C -11.756648  10.835725   9.169730
     C -11.222164   8.949754  10.636584
     H -13.012175   9.141189   9.416730
     C -10.535247  11.465231   9.514193
     H -12.437329  11.311095   8.465213
     C -10.000097   9.616809  11.025612
     C -11.575359   7.716370  11.243335
     C  -9.696081  10.874915  10.425470
     H -10.254086  12.408417   9.048295
     C  -9.161808   9.068453  12.029246
     C -10.737057   7.168005  12.246992
     C -12.787791   6.986741  10.864112
     H  -8.773515  11.381060  10.703355
     C  -9.514941   7.835085  12.635876
     C  -7.949514   9.798156  12.408948
     C -11.041104   5.910105  12.847670
     C -13.129902   6.666424   9.598951
     H -13.427318   6.643897  11.682848
     C  -8.656202   7.169650  13.563238
     C  -7.608244  10.119486  13.674078
     H  -7.309170  10.140130  11.590468
     C -10.201910   5.320325  13.759243
     H -11.963641   5.403695  12.570177
     C -14.339249   5.964591   9.192191
     H -12.457689   6.947846   8.784753
     C  -8.980389   5.949836  14.103347
     H  -7.724801   7.644246  13.855587
     C  -6.398540  10.820637  14.081140
     H  -8.281187   9.839170  14.488075
     H -10.483173   4.377472  14.225764
     C -15.397104   5.667286  10.067941
     C -14.513199   5.604758   7.847810
     H  -8.299817   5.474757  14.808191
     C  -5.339884  11.116316  13.205870
     C  -6.224913  11.181100  15.425354
     C -16.563067   5.111886   9.558030
     H -15.336536   5.900622  11.128740
     C -15.708470   5.020796   7.440556
     H -13.732630   5.804285   7.115933
     C  -4.173741  11.671169  13.715917
     H  -5.400085  10.882395  12.145199
     C  -5.029005  11.763467  15.833032
     H  -7.006021  10.982766  16.156967
     H -17.412241   4.942279  10.223081
     N -16.745393   4.789082   8.262848
     H -15.843065   4.749300   6.392598
     H  -3.324246  11.840202  13.051138
     N  -3.991547  11.994056  15.011115
     H  -4.894444  12.034890  16.881022
     C -13.338574  15.150124   1.658562
     C -13.014440  16.370223   1.118950
     C -12.479956  14.484252   2.585804
     H -14.269967  14.675687   1.365950
     C -11.793039  16.999729   1.463413
     H -13.695121  16.845593   0.414433
     C -11.257889  15.151307   2.974832
     C -12.833151  13.250868   3.192555
     C -10.953873  16.409413   2.374690
     H -11.511878  17.942915   0.997515
     C -10.419600  14.602951   3.978466
     C -11.994849  12.702503   4.196212
     C -14.045583  12.521239   2.813332
     H -10.031307  16.915558   2.652575
     C -10.772733  13.369583   4.585096
     C  -9.207306  15.332654   4.358168
     C -12.298896  11.444603   4.796890
     C -14.387694  12.200922   1.548171
     H -14.685110  12.178395   3.632068
     C  -9.913994  12.704148   5.512458
     C  -8.866036  15.653984   5.623298
     H  -8.566962  15.674628   3.539688
     C -11.459702  10.854823   5.708463
     H -13.221433  10.938193   4.519397
     C -15.597041  11.499089   1.141411
     H -13.715481  12.482344   0.733973
     C -10.238181  11.484334   6.052567
     H  -8.982593  13.178744   5.804807
     C  -7.656332  16.355135   6.030360
     H  -9.538979  15.373668   6.437295
     H -11.740965   9.911970   6.174984
     C -16.654896  11.201784   2.017161
     C -15.770991  11.139256  -0.202970
     H  -9.557609  11.009255   6.757411
     C  -6.597676  16.650814   5.155090
     C  -7.482705  16.715598   7.374574
     C -17.820859  10.646384   1.507250
     H -16.594328  11.435120   3.077960
     C -16.966262  10.555294  -0.610224
     H -14.990422  11.338783  -0.934847
     C  -5.431533  17.205667   5.665137
     H  -6.657877  16.416893   4.094419
     C  -6.286797  17.297965   7.782252
     H  -8.263813  16.517264   8.106187
     H -18.670033  10.476777   2.172301
     N -18.003185  10.323580   0.212068
     H -17.100857  10.283798  -1.658182
     H  -4.582038  17.374700   5.000358
     N  -5.249339  17.528554   6.960335
     H  -6.152236  17.569388   8.830242
